Version 4.1
SHEET 1 1540 1732
WIRE -448 64 -528 64
WIRE 1120 64 1088 64
WIRE -528 80 -528 64
WIRE -80 96 -304 96
WIRE -16 96 -80 96
WIRE 160 96 -16 96
WIRE 320 96 240 96
WIRE 416 96 320 96
WIRE 560 96 416 96
WIRE 752 96 560 96
WIRE 960 96 832 96
WIRE -448 128 -544 128
WIRE 1008 160 1008 64
WIRE 1008 160 928 160
WIRE 1024 160 1008 160
WIRE 1120 176 1120 64
WIRE 1120 176 1088 176
WIRE 1200 176 1120 176
WIRE -448 192 -448 160
WIRE 960 192 960 96
WIRE 1024 192 960 192
WIRE -544 208 -544 128
WIRE -16 224 -16 96
WIRE 160 224 -16 224
WIRE 320 224 240 224
WIRE 416 224 320 224
WIRE 560 224 416 224
WIRE 752 224 560 224
WIRE 896 224 832 224
WIRE 1024 304 992 304
WIRE 1120 304 1104 304
WIRE -16 352 -16 224
WIRE 160 352 -16 352
WIRE 320 352 240 352
WIRE 416 352 320 352
WIRE 752 352 416 352
WIRE 928 352 928 160
WIRE 928 352 832 352
WIRE 992 416 992 304
WIRE 992 416 864 416
WIRE 1024 416 992 416
WIRE 1120 432 1120 304
WIRE 1120 432 1088 432
WIRE 1200 432 1120 432
WIRE 896 448 896 224
WIRE 1024 448 896 448
WIRE -16 480 -16 352
WIRE 160 480 -16 480
WIRE 320 480 240 480
WIRE 416 480 320 480
WIRE 752 480 416 480
WIRE 864 480 864 416
WIRE 864 480 832 480
FLAG 176 528 0
FLAG 176 400 0
FLAG 176 272 0
FLAG 176 144 0
FLAG 112 880 0
FLAG 176 880 0
FLAG 240 880 0
FLAG 304 880 0
FLAG 176 800 lo90
FLAG 224 272 lo90
FLAG 240 800 lo180
FLAG 224 400 lo180
FLAG 304 800 lo270
FLAG 224 144 lo0
FLAG 224 528 lo270
FLAG 112 800 lo0
FLAG 320 96 I+
FLAG 320 352 I-
FLAG 320 224 Q+
FLAG 320 480 Q-
FLAG -544 288 0
FLAG 560 304 0
FLAG 560 176 0
FLAG 416 160 0
FLAG 416 288 0
FLAG 416 416 0
FLAG 416 544 0
FLAG -448 192 0
FLAG -528 80 0
FLAG 1200 176 I
FLAG 1200 432 Q
FLAG -80 96 AM_sig
SYMBOL sw 144 96 R270
SYMATTR InstName S1
SYMATTR Value TASW
SYMBOL sw 144 224 R270
SYMATTR InstName S2
SYMATTR Value TASW
SYMBOL sw 144 352 R270
SYMATTR InstName S3
SYMATTR Value TASW
SYMBOL sw 144 480 R270
SYMATTR InstName S4
SYMATTR Value TASW
SYMBOL voltage 112 784 R0
WINDOW 123 0 0 Left 0
WINDOW 39 0 0 Left 0
SYMATTR InstName V1
SYMATTR Value PULSE(0 1 0 1p 1p 378.78n 1.5151u)
SYMBOL voltage 176 784 R0
WINDOW 123 0 0 Left 0
WINDOW 39 0 0 Left 0
SYMATTR InstName V2
SYMATTR Value PULSE(0 1 378.78n 1p 1p 378.78n 1.5151u)
SYMBOL voltage 240 784 R0
WINDOW 123 0 0 Left 0
WINDOW 39 0 0 Left 0
SYMATTR InstName V3
SYMATTR Value PULSE(0 1 757.57n 1p 1p 378.78n 1.5151u)
SYMBOL voltage 304 784 R0
WINDOW 123 0 0 Left 0
WINDOW 39 0 0 Left 0
SYMATTR InstName V4
SYMATTR Value PULSE(0 1 1.13636u 1p 1p 378.78n 1.5151u)
SYMBOL res 544 208 R0
SYMATTR InstName R2
SYMATTR Value 820
SYMBOL res 544 80 R0
SYMATTR InstName R3
SYMATTR Value 820
SYMBOL voltage -416 368 R0
WINDOW 123 0 0 Left 0
WINDOW 39 0 0 Left 0
SYMATTR InstName V5
SYMATTR Value SINE(1 0.5 660k 0 0 0 100)
SYMBOL cap 400 96 R0
SYMATTR InstName C2
SYMATTR Value 500n
SYMBOL cap 400 224 R0
SYMATTR InstName C3
SYMATTR Value 500n
SYMBOL cap 400 352 R0
SYMATTR InstName C4
SYMATTR Value 500n
SYMBOL cap 400 480 R0
SYMATTR InstName C5
SYMATTR Value 500n
SYMBOL SpecialFunctions\\modulate -448 64 R0
WINDOW 123 16 -20 Left 2
SYMATTR Value2 mark=661k space=5k
SYMATTR InstName A1
SYMBOL voltage -544 192 R0
WINDOW 123 0 0 Left 0
WINDOW 39 0 0 Left 0
SYMATTR InstName V6
SYMATTR Value SINE(1 .5 5k)
SYMBOL OpAmps\\UniversalOpAmp 1056 176 R0
SYMATTR InstName U3
SYMBOL OpAmps\\UniversalOpAmp 1056 432 R0
SYMATTR InstName U4
SYMBOL res 1120 288 R90
WINDOW 0 0 56 VBottom 2
WINDOW 3 32 56 VTop 2
SYMATTR InstName R1
SYMATTR Value 1k
SYMBOL res 1104 48 R90
WINDOW 0 0 56 VBottom 2
WINDOW 3 32 56 VTop 2
SYMATTR InstName R4
SYMATTR Value 1k
SYMBOL res 848 80 R90
WINDOW 0 0 56 VBottom 2
WINDOW 3 32 56 VTop 2
SYMATTR InstName R5
SYMATTR Value 1k
SYMBOL res 848 208 R90
WINDOW 0 0 56 VBottom 2
WINDOW 3 32 56 VTop 2
SYMATTR InstName R6
SYMATTR Value 1k
SYMBOL res 848 336 R90
WINDOW 0 0 56 VBottom 2
WINDOW 3 32 56 VTop 2
SYMATTR InstName R7
SYMATTR Value 1k
SYMBOL res 848 464 R90
WINDOW 0 0 56 VBottom 2
WINDOW 3 32 56 VTop 2
SYMATTR InstName R8
SYMATTR Value 1k
TEXT 384 624 Left 2 !.model TASW SW(Ron=5 Roff=1Meg Vt=0.5 Vh=0)
TEXT 384 648 Left 2 !.tran 0 5m 0 1m
TEXT 104 -24 Left 2 ;ANALOG SWITCHES
TEXT 88 640 Left 2 ;VOLTAGES TO\nCONTROL SWITCHES\n(LO FREQ SET TO\n660kHz)
TEXT -520 -24 Left 2 ;AM SIGNAL GENERATOR
TEXT 384 56 Left 2 ;LOW PASS FILTER
TEXT 808 -24 Left 2 ;DIFFERENTIAL\nAMPLIFIER
